 ****** HSPICE -- C-2009.09 32-BIT (Aug 24 2009) winnt ******                   
  Copyright (C) 2009 Synopsys, Inc. All Rights Reserved.                        
  Unpublished-rights reserved under US copyright laws.
  This program is protected by law and is subject to the 
  terms and conditions of the license agreement from Synopsys.
  Use of this program is your acceptance to be bound by the 
  license agreement. HSPICE is the trademark of Synopsys, Inc.
  Input File: d:\memristor\idea4\new_code\kwta\kwta.sp                          
  lic:  
  lic: FLEXlm: v8.5b 
  lic: USER:   Eric                 HOSTNAME: DESKTOP-7I10PFH 
  lic: HOSTID: "00cfe033f632 005056c00001 005056c00008" PID:      94804 
  lic: Using FLEXlm license file: 
  lic: 27000@localhost 
  lic: Checkout 1 hspice 
  lic: License/Maintenance for hspice will expire on 31-dec-2028/2008.120 
  lic: FLOATING license(s) on SERVER localhost 
  lic:   
 Init: read install configuration file: C:\synopsys\Hspice_C-2009.09\meta.cfg
 scientific notation:
 a=10**-18  f=10**-15  p=10**-12  n=10**-9  u=10**-6
 m=10**-3   k=10**3    x=10**6    g=10**9 


 **warning**  the accurate option increases  the cpu time but the results
                are more accurate.
 ***accurate option sets default value of the options when runlvl=0: 
 lvltim= 3         dvdt= 2       relvar= 200.00m absvar= 200.00m
     ft= 200.00m relmos=  10.00m
 (used for FFT control ) fft_accurate= 1
1****** HSPICE -- C-2009.09 32-BIT (Aug 24 2009) winnt ******                   
 ******  
 .title kwta

  ******  circuit name directory
 circuit number to circuit name directory
   number circuitname                     definition         multiplier
        0 main circuit
        1 xinvert.                        invert             1.00 
        2 xcursour.                       cursour            1.00 
        3 xm1.                            mod                1.00 
        4 xm2.                            mod                1.00 
        5 xm3.                            mod                1.00 
        6 xm1.x1.                         invert             1.00 
        7 xm1.x2.                         invert             1.00 
        8 xm2.x1.                         invert             1.00 
        9 xm2.x2.                         invert             1.00 
       10 xm3.x1.                         invert             1.00 
       11 xm3.x2.                         invert             1.00 


 circuit parameter definitions
  parameter          =  value 





 constants  - tnom         kt           vt           gapsi        ni
            2.981e+02    4.116e-21    2.569e-02    1.115e+00    1.256e+16  
1****** HSPICE -- C-2009.09 32-BIT (Aug 24 2009) winnt ******                   
 ******  
 .title kwta

  ******  mos   model parameters tnom=  25.000 temp=  25.000 *****
 ***************************************************************************
 *** common model parameters  model name:   0:nmod     model type:nmos   ***
 ***************************************************************************
     names  values   units     names  values   units     names  values   units
     -----  ------   -----     -----  ------   -----     -----  ------   -----

   1*** geometry parameters ***
       ld=   0.    meters      lmlt=   1.00                wd=   0.    meters 
     wmlt=   1.00                xl=   0.    meters        xw=   0.    meters 
     lref=   0.    meters      wref=   0.    meters      lref=   0.    meters 
     wref=   0.    meters     xlref=   0.    meters     xwref=   0.    meters 
     lmin=   0.    meters      wmin=   0.    meters      lmax=   0.    meters 
     wmax=   0.    meters 

   2*** threshold voltage parameters ***
      vto= 133.88m volts        nss=   0.    1/cm**2      tpg=   1.00         
      phi= 579.84m volts      gamma= 527.63m v**0.5      bulk=  gnd           
    ngate=   0.    cm**3       nsub= 1.0e+15 1/cm**3   delvto=   0.    volts  

   3*** gate overlap capacitance parameters ***
     cgbo=   0.    f/meter     cgdo=   0.    f/meter     cgso=   0.    f/meter
     meto=   0.    meters 

   4*** gate capacitance parameters ***
    capop=   2.00               cf1=   0.    volts        cf2= 100.00m volts  
      cf3=   1.00  volts        cf4=  50.00               cf5= 666.67m        
      cf6= 500.00               xqc= 500.00m              tox= 100.00n meters 
      cox= 345.31u f/m**2 

   5*** diffusion parasitic parameters ***
      acm=   0.                  is=  10.00f amps          js=   0.    a/m**2 
      jsw=   0.    amp/m        nds=   1.00               cbd=   0.    farad  
      cbs=   0.    farad         cj= 101.85u f/m**2      cjsw=   0.    f/m    
   cjgate=   0.    f/m           mj= 500.00m             mjsw= 330.00m        
       pb= 800.00m volts        php= 800.00m volts         tt=   0.    secs   
     hdif=   0.    meters      ldif=   0.    meters        rd=   0.    ohms   
       rs=   0.    ohms         rsh=   0.    ohms/sq       fc=   0.           
    alpha=   0.                 vcr=   0.    volts      iirat=   0.           
      rdc=   0.    ohms         rsc=   0.    ohms           n=   1.00         
     vnds=  -1.00  volts  

   6*** temperature effect parameters ***
     tlev=   0.               tlevc=   0.                  eg=   1.11  ev     
     gap1= 702.00u ev/deg      gap2=   1.11k deg          xti=   0.           
      bex=  -1.50               tcv=   0.    v/deg k      trd=   0.    /deg   
      trs=   0.    /deg         cta=   0.    /deg         ctp=   0.    /deg   

   7*** noise parameters ***
       kf=   0.                  af=   1.00              nlev=   2.00         
   gdsnoi=   1.00         

   ***  level  1  model parameters  ***

   lambda=   0.    /v            kp=  20.72u a/v**2 
 ***************************************************************************
 *** common model parameters  model name:   0:pmod     model type:pmos   ***
 ***************************************************************************
     names  values   units     names  values   units     names  values   units
     -----  ------   -----     -----  ------   -----     -----  ------   -----

   1*** geometry parameters ***
       ld=   0.    meters      lmlt=   1.00                wd=   0.    meters 
     wmlt=   1.00                xl=   0.    meters        xw=   0.    meters 
     lref=   0.    meters      wref=   0.    meters      lref=   0.    meters 
     wref=   0.    meters     xlref=   0.    meters     xwref=   0.    meters 
     lmin=   0.    meters      wmin=   0.    meters      lmax=   0.    meters 
     wmax=   0.    meters 

   2*** threshold voltage parameters ***
      vto=-133.88m volts        nss=   0.    1/cm**2      tpg=   1.00         
      phi= 579.84m volts      gamma= 527.63m v**0.5      bulk=  gnd           
    ngate=   0.    cm**3       nsub= 1.0e+15 1/cm**3   delvto=   0.    volts  

   3*** gate overlap capacitance parameters ***
     cgbo=   0.    f/meter     cgdo=   0.    f/meter     cgso=   0.    f/meter
     meto=   0.    meters 

   4*** gate capacitance parameters ***
    capop=   2.00               cf1=   0.    volts        cf2= 100.00m volts  
      cf3=   1.00  volts        cf4=  50.00               cf5= 666.67m        
      cf6= 500.00               xqc= 500.00m              tox= 100.00n meters 
      cox= 345.31u f/m**2 

   5*** diffusion parasitic parameters ***
      acm=   0.                  is=  10.00f amps          js=   0.    a/m**2 
      jsw=   0.    amp/m        nds=   1.00               cbd=   0.    farad  
      cbs=   0.    farad         cj= 101.85u f/m**2      cjsw=   0.    f/m    
   cjgate=   0.    f/m           mj= 500.00m             mjsw= 330.00m        
       pb= 800.00m volts        php= 800.00m volts         tt=   0.    secs   
     hdif=   0.    meters      ldif=   0.    meters        rd=   0.    ohms   
       rs=   0.    ohms         rsh=   0.    ohms/sq       fc=   0.           
    alpha=   0.                 vcr=   0.    volts      iirat=   0.           
      rdc=   0.    ohms         rsc=   0.    ohms           n=   1.00         
     vnds=  -1.00  volts  

   6*** temperature effect parameters ***
     tlev=   0.               tlevc=   0.                  eg=   1.11  ev     
     gap1= 702.00u ev/deg      gap2=   1.11k deg          xti=   0.           
      bex=  -1.50               tcv=   0.    v/deg k      trd=   0.    /deg   
      trs=   0.    /deg         cta=   0.    /deg         ctp=   0.    /deg   

   7*** noise parameters ***
       kf=   0.                  af=   1.00              nlev=   2.00         
   gdsnoi=   1.00         

   ***  level  1  model parameters  ***

   lambda=   0.    /v            kp=   8.63u a/v**2 
  **warning** (d:\memristor\idea4\new_code\kwta\kwta.sp:46) dc voltage reset to initial transient source value              in source        0:v1                  new dc=  0.0000D+00
  **warning** (d:\memristor\idea4\new_code\kwta\kwta.sp:80) unable to find node r referred. Please specify a valid node.
 **warning** invalid circuit pathname xm4

 **warning**  invalid node pathname on output variable
 or initialized node m10_s            , using ground instead

 **warning** invalid circuit pathname xm5

 **warning**  invalid node pathname on output variable
 or initialized node m10_s            , using ground instead

 **warning** invalid circuit pathname xm6

 **warning**  invalid node pathname on output variable
 or initialized node m10_s            , using ground instead

1****** HSPICE -- C-2009.09 32-BIT (Aug 24 2009) winnt ******                   
 ******  
 .title kwta

  ******  circuit element summary tnom=  25.000 temp=  25.000 *****


 **** independent sources

     name         node1        node2      dc volt    ac mag    ac phase    type
  v1  n_v1              0                    0.         0.         0.      pwl  
                time        value

                   0.           0.     
                 2.000e-06      0.     
                 2.010e-06    5.000e+00
                 4.000e-06    5.000e+00
                 4.010e-06    5.000e+00


  v2  n_v2              0                    0.         0.         0.      pwl  
                time        value

                   0.           0.     
                 4.000e-06      0.     
                 4.010e-06    5.000e+00
                 1.000e-05    5.000e+00
                 1.001e-05    5.000e+00


  v3  n_v3              0                    0.         0.         0.      pwl  
                time        value

                   0.           0.     
                 2.000e-06      0.     
                 1.400e-05      0.     
                 1.401e-05    5.000e+00
                 1.600e-05    5.000e+00


  vin1  n_vin1            0                  1.000e-01    0.         0.      dc   
  vin2  n_vin2            0                  2.000e-01    0.         0.      dc   
  vin3  n_vin3            0                  3.000e-01    0.         0.      dc   
 xinvert.vdd xinvert.n_vdd             0                  5.000e+00    0.         0.      dc   
 xcursour.vdd xcursour.n_vdd             0                  5.000e+00    0.         0.      dc   
 xcursour.vcc xcursour.n_vcc             0                 -5.000e+00    0.         0.      dc   
 xm1.vdd xm1.n_vdd             0                  5.000e+00    0.         0.      dc   
 xm1.vcc xm1.n_vcc             0                 -5.000e+00    0.         0.      dc   
 xm2.vdd xm2.n_vdd             0                  5.000e+00    0.         0.      dc   
 xm2.vcc xm2.n_vcc             0                 -5.000e+00    0.         0.      dc   
 xm3.vdd xm3.n_vdd             0                  5.000e+00    0.         0.      dc   
 xm3.vcc xm3.n_vcc             0                 -5.000e+00    0.         0.      dc   
 xm1.x1.vdd xm1.x1.n_vdd             0                  5.000e+00    0.         0.      dc   
 xm1.x2.vdd xm1.x2.n_vdd             0                  5.000e+00    0.         0.      dc   
 xm2.x1.vdd xm2.x1.n_vdd             0                  5.000e+00    0.         0.      dc   
 xm2.x2.vdd xm2.x2.n_vdd             0                  5.000e+00    0.         0.      dc   
 xm3.x1.vdd xm3.x1.n_vdd             0                  5.000e+00    0.         0.      dc   
 xm3.x2.vdd xm3.x2.n_vdd             0                  5.000e+00    0.         0.      dc   
  i1  n_i1              0                  2.000e-05    0.         0.      dc   
  i2  n_i2              0                  4.000e-05    0.         0.      dc   


 **** mosfets
  
 
                                                                
 element name        1:m10      1:m11      2:m16       2:m17    
 drain               0:n_v1_    0:n_v1_    2:n_vdd     2:n_vdd  
 gate                0:n_v1     0:n_v1     0:n_m16s    0:n_v2   
 source              1:n_vdd    0:0        0:n_m16s    0:n_m16s 
 bulk                1:n_vdd    0:0        2:n_vdd     2:n_vdd  
 model               0:pmod     0:nmod     0:pmod      0:pmod   
 w eff             1.000e-07  1.000e-07  2.100e-05   3.100e-05  
 l eff             1.000e-07  1.000e-07  4.000e-06   5.000e-06  
 rd eff              0.         0.         0.          0.       
 rs eff              0.         0.         0.          0.       
 cdsat             1.000e-14  1.000e-14  1.000e-14   1.000e-14  
 cssat             1.000e-14  1.000e-14  1.000e-14   1.000e-14  
 capbd               0.         0.         0.          0.       
 capbs               0.         0.         0.          0.       
 temp              2.500e+01  2.500e+01  2.500e+01   2.500e+01  
 aic                                                            
  
 
                                                                 
 element name        2:m13        2:m12      2:m15       2:m14   
 drain               0:n_itail    0:n_i2     0:n_m16s    0:n_i1  
 gate                0:n_i2       0:n_i2     0:n_i1      0:n_i1  
 source              0:0          0:0        0:0         0:0     
 bulk                2:n_vcc      2:n_vcc    2:n_vcc     2:n_vcc 
 model               0:nmod       0:nmod     0:nmod      0:nmod  
 w eff             3.100e-05    3.100e-05  3.100e-05   3.100e-05 
 l eff             5.000e-06    5.000e-06  5.000e-06   5.000e-06 
 rd eff              0.           0.         0.          0.      
 rs eff              0.           0.         0.          0.      
 cdsat             1.000e-14    1.000e-14  1.000e-14   1.000e-14 
 cssat             1.000e-14    1.000e-14  1.000e-14   1.000e-14 
 capbd               0.           0.         0.          0.      
 capbs               0.           0.         0.          0.      
 temp              2.500e+01    2.500e+01  2.500e+01   2.500e+01 
 aic                                                             
  
 
                                                                 
 element name        3:m11       3:m10       3:m5        3:m7    
 drain               0:n_vin1    0:n_vin1    3:n_vdd     3:m5_s  
 gate                0:n_v1      0:n_v1_     0:n_m16s    3:m3_s  
 source              3:m10_s     3:m10_s     3:m5_s      3:m10_s 
 bulk                3:n_vdd     3:n_vcc     3:n_vdd     3:n_vdd 
 model               0:pmod      0:nmod      0:pmod      0:pmod  
 w eff             4.000e-06   4.000e-06   7.000e-06   7.000e-06 
 l eff             5.000e-06   5.000e-06   4.000e-06   4.000e-06 
 rd eff              0.          0.          0.          0.      
 rs eff              0.          0.          0.          0.      
 cdsat             1.000e-14   1.000e-14   1.000e-14   1.000e-14 
 cssat             1.000e-14   1.000e-14   1.000e-14   1.000e-14 
 capbd               0.          0.          0.          0.      
 capbs               0.          0.          0.          0.      
 temp              2.500e+01   2.500e+01   2.500e+01   2.500e+01 
 aic                                                             
  
 
                                                                 
 element name        3:m8         3:m9       3:m6       3:m3     
 drain               3:m10_s      3:m10_s    3:m8_s     3:n_vdd  
 gate                0:n_itail    0:n_v3     3:m2_s     0:n_m16s 
 source              3:m8_s       3:m8_s     0:0        3:m3_s   
 bulk                3:n_vcc      3:n_vcc    3:n_vcc    3:n_vdd  
 model               0:nmod       0:nmod     0:nmod     0:pmod   
 w eff             1.300e-05    1.300e-05  1.100e-05  2.100e-05  
 l eff             5.000e-06    5.000e-06  5.000e-06  4.000e-06  
 rd eff              0.           0.         0.         0.       
 rs eff              0.           0.         0.         0.       
 cdsat             1.000e-14    1.000e-14  1.000e-14  1.000e-14  
 cssat             1.000e-14    1.000e-14  1.000e-14  1.000e-14  
 capbd               0.           0.         0.         0.       
 capbs               0.           0.         0.         0.       
 temp              2.500e+01    2.500e+01  2.500e+01  2.500e+01  
 aic                                                             
  
 
                                                                   
 element name        3:m1         3:m2         3:m4       4:m11    
 drain               3:m3_s       3:m3_s       3:m2_s     0:n_vin2 
 gate                3:m10_s      0:n_itail    3:m2_s     0:n_v1   
 source              0:n_itail    3:m2_s       0:0        4:m10_s  
 bulk                3:n_vcc      3:n_vdd      3:n_vcc    4:n_vdd  
 model               0:nmod       0:pmod       0:nmod     0:pmod   
 w eff             9.000e-06    1.700e-05    1.100e-05  4.000e-06  
 l eff             5.000e-06    4.000e-06    5.000e-06  5.000e-06  
 rd eff              0.           0.           0.         0.       
 rs eff              0.           0.           0.         0.       
 cdsat             1.000e-14    1.000e-14    1.000e-14  1.000e-14  
 cssat             1.000e-14    1.000e-14    1.000e-14  1.000e-14  
 capbd               0.           0.           0.         0.       
 capbs               0.           0.           0.         0.       
 temp              2.500e+01    2.500e+01    2.500e+01  2.500e+01  
 aic                                                               
  
 
                                                                  
 element name        4:m10       4:m5        4:m7       4:m8      
 drain               0:n_vin2    4:n_vdd     4:m5_s     4:m10_s   
 gate                0:n_v1_     0:n_m16s    4:m3_s     0:n_itail 
 source              4:m10_s     4:m5_s      4:m10_s    4:m8_s    
 bulk                4:n_vcc     4:n_vdd     4:n_vdd    4:n_vcc   
 model               0:nmod      0:pmod      0:pmod     0:nmod    
 w eff             4.000e-06   7.000e-06   7.000e-06  1.300e-05   
 l eff             5.000e-06   4.000e-06   4.000e-06  5.000e-06   
 rd eff              0.          0.          0.         0.        
 rs eff              0.          0.          0.         0.        
 cdsat             1.000e-14   1.000e-14   1.000e-14  1.000e-14   
 cssat             1.000e-14   1.000e-14   1.000e-14  1.000e-14   
 capbd               0.          0.          0.         0.        
 capbs               0.          0.          0.         0.        
 temp              2.500e+01   2.500e+01   2.500e+01  2.500e+01   
 aic                                                              
  
 
                                                                 
 element name        4:m9       4:m6       4:m3        4:m1      
 drain               4:m10_s    4:m8_s     4:n_vdd     4:m3_s    
 gate                0:n_v3     4:m2_s     0:n_m16s    4:m10_s   
 source              4:m8_s     0:0        4:m3_s      0:n_itail 
 bulk                4:n_vcc    4:n_vcc    4:n_vdd     4:n_vcc   
 model               0:nmod     0:nmod     0:pmod      0:nmod    
 w eff             1.300e-05  1.100e-05  2.100e-05   9.000e-06   
 l eff             5.000e-06  5.000e-06  4.000e-06   5.000e-06   
 rd eff              0.         0.         0.          0.        
 rs eff              0.         0.         0.          0.        
 cdsat             1.000e-14  1.000e-14  1.000e-14   1.000e-14   
 cssat             1.000e-14  1.000e-14  1.000e-14   1.000e-14   
 capbd               0.         0.         0.          0.        
 capbs               0.         0.         0.          0.        
 temp              2.500e+01  2.500e+01  2.500e+01   2.500e+01   
 aic                                                             
  
 
                                                                  
 element name        4:m2         4:m4       5:m11       5:m10    
 drain               4:m3_s       4:m2_s     0:n_vin3    0:n_vin3 
 gate                0:n_itail    4:m2_s     0:n_v1      0:n_v1_  
 source              4:m2_s       0:0        5:m10_s     5:m10_s  
 bulk                4:n_vdd      4:n_vcc    5:n_vdd     5:n_vcc  
 model               0:pmod       0:nmod     0:pmod      0:nmod   
 w eff             1.700e-05    1.100e-05  4.000e-06   4.000e-06  
 l eff             4.000e-06    5.000e-06  5.000e-06   5.000e-06  
 rd eff              0.           0.         0.          0.       
 rs eff              0.           0.         0.          0.       
 cdsat             1.000e-14    1.000e-14  1.000e-14   1.000e-14  
 cssat             1.000e-14    1.000e-14  1.000e-14   1.000e-14  
 capbd               0.           0.         0.          0.       
 capbs               0.           0.         0.          0.       
 temp              2.500e+01    2.500e+01  2.500e+01   2.500e+01  
 aic                                                              
  
 
                                                                 
 element name        5:m5        5:m7       5:m8         5:m9    
 drain               5:n_vdd     5:m5_s     5:m10_s      5:m10_s 
 gate                0:n_m16s    5:m3_s     0:n_itail    0:n_v3  
 source              5:m5_s      5:m10_s    5:m8_s       5:m8_s  
 bulk                5:n_vdd     5:n_vdd    5:n_vcc      5:n_vcc 
 model               0:pmod      0:pmod     0:nmod       0:nmod  
 w eff             7.000e-06   7.000e-06  1.300e-05    1.300e-05 
 l eff             4.000e-06   4.000e-06  5.000e-06    5.000e-06 
 rd eff              0.          0.         0.           0.      
 rs eff              0.          0.         0.           0.      
 cdsat             1.000e-14   1.000e-14  1.000e-14    1.000e-14 
 cssat             1.000e-14   1.000e-14  1.000e-14    1.000e-14 
 capbd               0.          0.         0.           0.      
 capbs               0.          0.         0.           0.      
 temp              2.500e+01   2.500e+01  2.500e+01    2.500e+01 
 aic                                                             
  
 
                                                                   
 element name        5:m6       5:m3        5:m1         5:m2      
 drain               5:m8_s     5:n_vdd     5:m3_s       5:m3_s    
 gate                5:m2_s     0:n_m16s    5:m10_s      0:n_itail 
 source              0:0        5:m3_s      0:n_itail    5:m2_s    
 bulk                5:n_vcc    5:n_vdd     5:n_vcc      5:n_vdd   
 model               0:nmod     0:pmod      0:nmod       0:pmod    
 w eff             1.100e-05  2.100e-05   9.000e-06    1.700e-05   
 l eff             5.000e-06  4.000e-06   5.000e-06    4.000e-06   
 rd eff              0.         0.          0.           0.        
 rs eff              0.         0.          0.           0.        
 cdsat             1.000e-14  1.000e-14   1.000e-14    1.000e-14   
 cssat             1.000e-14  1.000e-14   1.000e-14    1.000e-14   
 capbd               0.         0.          0.           0.        
 capbs               0.         0.          0.           0.        
 temp              2.500e+01  2.500e+01   2.500e+01    2.500e+01   
 aic                                                               
  
 
                                                                
 element name        5:m4       6:m10      6:m11      7:m10     
 drain               5:m2_s     3:1        3:1        0:n_vout1 
 gate                5:m2_s     3:m10_s    3:m10_s    3:1       
 source              0:0        6:n_vdd    0:0        7:n_vdd   
 bulk                5:n_vcc    6:n_vdd    0:0        7:n_vdd   
 model               0:nmod     0:pmod     0:nmod     0:pmod    
 w eff             1.100e-05  1.000e-07  1.000e-07  1.000e-07   
 l eff             5.000e-06  1.000e-07  1.000e-07  1.000e-07   
 rd eff              0.         0.         0.         0.        
 rs eff              0.         0.         0.         0.        
 cdsat             1.000e-14  1.000e-14  1.000e-14  1.000e-14   
 cssat             1.000e-14  1.000e-14  1.000e-14  1.000e-14   
 capbd               0.         0.         0.         0.        
 capbs               0.         0.         0.         0.        
 temp              2.500e+01  2.500e+01  2.500e+01  2.500e+01   
 aic                                                            
  
 
                                                                  
 element name        7:m11        8:m10      8:m11      9:m10     
 drain               0:n_vout1    4:1        4:1        0:n_vout2 
 gate                3:1          4:m10_s    4:m10_s    4:1       
 source              0:0          8:n_vdd    0:0        9:n_vdd   
 bulk                0:0          8:n_vdd    0:0        9:n_vdd   
 model               0:nmod       0:pmod     0:nmod     0:pmod    
 w eff             1.000e-07    1.000e-07  1.000e-07  1.000e-07   
 l eff             1.000e-07    1.000e-07  1.000e-07  1.000e-07   
 rd eff              0.           0.         0.         0.        
 rs eff              0.           0.         0.         0.        
 cdsat             1.000e-14    1.000e-14  1.000e-14  1.000e-14   
 cssat             1.000e-14    1.000e-14  1.000e-14  1.000e-14   
 capbd               0.           0.         0.         0.        
 capbs               0.           0.         0.         0.        
 temp              2.500e+01    2.500e+01  2.500e+01  2.500e+01   
 aic                                                              
  
 
                                                                  
 element name        9:m11       10:m10     10:m11     11:m10     
 drain               0:n_vout2    5:1        5:1        0:n_vout3 
 gate                4:1          5:m10_s    5:m10_s    5:1       
 source              0:0         10:n_vdd    0:0       11:n_vdd   
 bulk                0:0         10:n_vdd    0:0       11:n_vdd   
 model               0:nmod       0:pmod     0:nmod     0:pmod    
 w eff             1.000e-07    1.000e-07  1.000e-07  1.000e-07   
 l eff             1.000e-07    1.000e-07  1.000e-07  1.000e-07   
 rd eff              0.           0.         0.         0.        
 rs eff              0.           0.         0.         0.        
 cdsat             1.000e-14    1.000e-14  1.000e-14  1.000e-14   
 cssat             1.000e-14    1.000e-14  1.000e-14  1.000e-14   
 capbd               0.           0.         0.         0.        
 capbs               0.           0.         0.         0.        
 temp              2.500e+01    2.500e+01  2.500e+01  2.500e+01   
 aic                                                              
  
 
                               
 element name       11:m11     
 drain               0:n_vout3 
 gate                5:1       
 source              0:0       
 bulk                0:0       
 model               0:nmod    
 w eff             1.000e-07   
 l eff             1.000e-07   
 rd eff              0.        
 rs eff              0.        
 cdsat             1.000e-14   
 cssat             1.000e-14   
 capbd               0.        
 capbs               0.        
 temp              2.500e+01   
 aic                           
  


 **** subcircuit calls
    name        subcircuit         external nodes


         0:xinvert  invert          0:n_v1        0:n_v1_   
         0:xcursour cursour         0:n_v2        0:n_i1        0:n_i2    
                               0:n_itail     0:n_m16s  


         0:xm1      mod             0:n_vin1      0:n_vout1     0:n_v1    
                               0:n_v1_       0:n_m16s      0:n_v3    
                               0:n_itail 


         0:xm2      mod             0:n_vin2      0:n_vout2     0:n_v1    
                               0:n_v1_       0:n_m16s      0:n_v3    
                               0:n_itail 


         0:xm3      mod             0:n_vin3      0:n_vout3     0:n_v1    
                               0:n_v1_       0:n_m16s      0:n_v3    
                               0:n_itail 


         3:x1       invert          3:m10_s       3:1       
         3:x2       invert          3:1           0:n_vout1 
         4:x1       invert          4:m10_s       4:1       
         4:x2       invert          4:1           0:n_vout2 
         5:x1       invert          5:m10_s       5:1       
         5:x2       invert          5:1           0:n_vout3 
 
      

 **warning** an operating point request at  time=0 and a transient uic
     results in no operating point


 **diagnostic** set option symb=1 internally to help for convergence.
 *****************************************************************
 ******  option summary
 ******
 runlvl  = 0         bypass  = 0         
  Opening plot unit= 79
 file=d:\memristor\idea4\new_code\kwta\kwta.pa0                                




 **error**  internal timestep too small in transient analysis

          time =  0.92160E-16;  delta =  0.20000E-16;  numnit =   394

 **diagnostic** tran convergence failure.
 autoconvergence will be invoked to try method=gear lvltim=2.





 **warning** autoconvergence is invoked, trying method=gear lvltim=2.


 **diagnostic** tran convergence successful.
 you can disable autoconvergence by setting trcon=0.



          ***** job concluded
1****** HSPICE -- C-2009.09 32-BIT (Aug 24 2009) winnt ******                   
 ******  
 .title kwta

  ******  job statistics summary tnom=  25.000 temp=  25.000 *****

  ******  HSPICE Threads Information  ******

  Command Line Threads Count                  :     1
  Available CPU Count                         :     4
  Actual Model Evaluation(Load) Threads Count :     1
  Actual Solver Threads Count                 :     1


  ******  Circuit Statistics  ******
  # nodes       =      48 # elements   =      76
  # resistors   =       0 # capacitors =       0 # inductors   =       0
  # mutual_inds =       0 # vccs       =       0 # vcvs        =       0
  # cccs        =       0 # ccvs       =       0 # volt_srcs   =      21
  # curr_srcs   =       2 # diodes     =       0 # bjts        =       0
  # jfets       =       0 # mosfets    =      53 # U elements  =       0
  # T elements  =       0 # W elements =       0 # B elements  =       0
  # S elements  =       0 # P elements =       0 # va device   =       0


  ******  Runtime Statistics (seconds)  ******

  analysis           time    # points   tot. iter  conv.iter
  op point           0.00           1           0
  transient          0.62       10001       13189        5440 rev=       289
  readin             0.11
  errchk             0.01
  setup              0.03
  output             0.00


           total memory used          324  kbytes
           total cpu time            0.87 seconds
           total elapsed time        0.96 seconds
           job started at     21:35:05 06/08/2019
           job ended   at     21:35:05 06/08/2019


  lic: Release hspice token(s) 
